Version 4
SHEET 1 1252 680
WIRE -912 -224 -1520 -224
WIRE -528 -224 -912 -224
WIRE -128 -224 -528 -224
WIRE -128 -192 -128 -224
WIRE -128 -96 -128 -112
WIRE -912 -80 -912 -224
WIRE -128 16 -128 -16
WIRE 0 16 -128 16
WIRE 176 16 64 16
WIRE 368 16 176 16
WIRE -1520 64 -1520 -224
WIRE -528 64 -528 -224
WIRE -592 112 -656 112
WIRE -128 144 -128 16
WIRE -912 192 -912 0
WIRE -656 192 -656 112
WIRE -656 192 -912 192
WIRE -528 192 -528 160
WIRE -336 192 -528 192
WIRE -208 192 -256 192
WIRE 176 192 176 16
WIRE 368 192 368 16
WIRE -528 224 -528 192
WIRE -1232 240 -1376 240
WIRE -1104 240 -1152 240
WIRE -976 240 -1024 240
WIRE -656 272 -656 192
WIRE -592 272 -656 272
WIRE -1376 304 -1376 240
WIRE -1520 432 -1520 144
WIRE -1376 432 -1376 384
WIRE -1376 432 -1520 432
WIRE -912 432 -912 288
WIRE -912 432 -1376 432
WIRE -528 432 -528 320
WIRE -528 432 -912 432
WIRE -128 432 -128 240
WIRE -128 432 -528 432
WIRE 176 432 176 256
WIRE 176 432 -128 432
WIRE 368 432 368 272
WIRE 368 432 176 432
SYMBOL diode 0 32 R270
WINDOW 0 32 32 VTop 2
WINDOW 3 0 32 VBottom 2
SYMATTR InstName D1
SYMATTR Value {D}
SYMBOL res 352 176 R0
SYMATTR InstName RL
SYMATTR Value {RL}
SYMBOL cap 160 192 R0
SYMATTR InstName C1
SYMATTR Value {C}
SYMBOL ind -144 -208 R0
SYMATTR InstName L1
SYMATTR Value {L}
SYMBOL voltage -1376 288 R0
WINDOW 3 -11 192 Left 2
WINDOW 123 0 0 Left 0
WINDOW 39 0 0 Left 0
SYMATTR Value PULSE(0 {VGG} 0 1n 1n {Ton} {Ts} 1000000000)
SYMATTR InstName V2
SYMBOL voltage -1520 48 R0
WINDOW 123 0 0 Left 0
WINDOW 39 0 0 Left 0
SYMATTR InstName V1
SYMATTR Value {VDD}
SYMBOL res -144 -112 R0
SYMATTR InstName Rind
SYMATTR Value {Rind}
SYMBOL ZZZ\\MOS\\IRF\\NMOSFET\\irf530 -160 192 R0
SYMATTR InstName U1
SYMBOL res -240 176 R90
WINDOW 0 0 56 VBottom 2
WINDOW 3 32 56 VTop 2
SYMATTR InstName RG
SYMATTR Value {Rg}
SYMBOL npn -976 192 R0
SYMATTR InstName Q2
SYMATTR Value BC547B
SYMBOL npn -592 64 R0
SYMATTR InstName Q1
SYMATTR Value BC547B
SYMBOL pnp -592 224 R0
SYMATTR InstName Q3
SYMATTR Value BC557B
SYMBOL res -1008 224 R90
WINDOW 0 0 56 VBottom 2
WINDOW 3 32 56 VTop 2
SYMATTR InstName R3
SYMATTR Value {Rb2}
SYMBOL res -1136 224 R90
WINDOW 0 0 56 VBottom 2
WINDOW 3 32 56 VTop 2
SYMATTR InstName R6
SYMATTR Value {Rb1}
SYMBOL res -928 -96 R0
SYMATTR InstName RC
SYMATTR Value {Rc}
TEXT 616 -40 Left 2 !.param L = 40u
TEXT 616 -8 Left 2 !.param R = 50
TEXT 616 24 Left 2 !.param C = 40u
TEXT 624 496 Left 2 !.tran 0 50m 0 1u
TEXT 616 -264 Left 2 !.param VDD = 12
TEXT 616 -184 Left 2 !.param D=0.5
TEXT 616 -152 Left 2 !.param Fs = 100k
TEXT 616 -120 Left 2 !.param Ts = 1/Fs
TEXT 616 -88 Left 2 !.param Ton = Ts*D
TEXT 616 344 Left 2 !.model SW SW(Ron=0.0001 Roff=100G Vt=.5 Vh=-.4)
TEXT 616 384 Left 2 !.model D_ideal D(Ron=0.0001 Roff=100G Vfwd=0)
TEXT 592 -368 Left 2 ;Params
TEXT 592 -312 Left 2 ;Boost
TEXT 616 -232 Left 2 !.param VGG = 18
TEXT 616 112 Left 2 !.param Rc = 1k
TEXT 616 144 Left 2 !.param Rb1 = 470
TEXT 616 176 Left 2 !.param Rb2 = 470
TEXT 616 232 Left 2 !.param Rg = 22
TEXT 592 288 Left 2 ;Models
TEXT 592 440 Left 2 ;Simulation
TEXT -336 104 Left 2 ;Power MOS
TEXT -160 -248 Left 2 ;Boost
TEXT -720 -40 Left 2 ;Totem Pole
TEXT -1248 -136 Left 2 ;Common Emitter
TEXT 616 56 Left 2 !.param Rind = 1
TEXT -1552 -360 Left 2 ;Boost Converter - Testbench
LINE Normal 32 64 32 336 2
LINE Normal -176 64 32 64 2
LINE Normal -176 -272 -176 64 2
LINE Normal 480 -272 -176 -272 2
LINE Normal 480 320 480 -272 2
LINE Normal 480 336 480 320 2
LINE Normal 32 336 480 336 2
LINE Normal 1248 -336 560 -336 2
RECTANGLE Normal 0 336 -352 80 2
RECTANGLE Normal -368 336 -736 -64 2
RECTANGLE Normal -752 336 -1264 -160 2
RECTANGLE Normal 1248 544 560 -400 2
RECTANGLE Normal -1584 -400 512 544 2
